/*--------------------------------*- C++ -*----------------------------------*\
| =========                 |                                                 |
| \\      /  F ield         | OpenFOAM: The Open Source CFD Toolbox           |
|  \\    /   O peration     | Version:  2.3.1                                 |
|   \\  /    A nd           | Web:      www.OpenFOAM.org                      |
|    \\/     M anipulation  |                                                 |
\*---------------------------------------------------------------------------*/
FoamFile
{
    version     2.0;
    format      ascii;
    class       dictionary;
    location    "constant";
    object      radiationProperties;
}
// * * * * * * * * * * * * * * * * * * * * * * * * * * * * * * * * * * * * * //

radiation on;

radiationModel  DORT;

DORTCoeffs
{
    nPhi        15;          // azimuthal angles in PI/2 on X-Y.(from Y to X)
    nTheta      15;          // polar angles in PI (from Z to X-Y plane)
	nLambda		1;
    convergence 1e-6;   // convergence criteria for radiation iteration
    maxIter     10;         // maximum number of iterations
    cacheDiv    false;
}

// Number of flow iterations per radiation iteration
solverFreq 1;

extintionModel greyConstExt;

greyConstExtCoeffs
{
   absorptivity    absorptivity    [ m^-1 ]         43.35;
   scatter         scatter         [ m^-1 ]         232.7325;
}

phaseFunction    HenyeyGreenteinsPhaseFunction;

HenyeyGreenteinsPhaseFunctionCoeffs
{
	asymmetry asymmetry [] 0.52845;
}


// ************************************************************************* //
